examples/test_perturbation_outputs/pert_min_loss/pglib_opf_case588_sdet.m
%% MATPOWER Case Format : Version 2
function mpc = pglib_opf_case588_sdet
mpc.version = '2';

%%-----  Power Flow Data  -----%%
%% system MVA base
mpc.baseMVA = 100.0;
%% bus data
%    bus_i    type    Pd    Qd    Gs    Bs    area    Vm    Va    baseKV    zone    Vmax    Vmin
mpc.bus = [
	1	1	89.79	28.550000000000004	0.0	0.0	1	1.0	0.0	345.0	1	1.1	0.9				
	2	1	0.0	0.0	0.0	-20.0	1	1.0	0.0	345.0	1	1.1	0.9				
	3	1	0.0	0.0	0.0	62.35000000000001	1	1.0	0.0	500.0	1	1.1	0.9				
	4	2	0.0	0.0	0.0	0.0	1	1.0	0.0	500.0	1	1.1	0.9				
	5	1	32.47	85.89	0.0	0.0	1	1.0	0.0	500.0	1	1.1	0.9				
	6	1	0.0	0.0	0.0	0.0	1	1.0	0.0	500.0	1	1.1	0.9				
	7	1	0.0	0.0	0.0	0.0	1	1.0	0.0	345.0	1	1.1	0.9				
	8	1	0.0	0.0	0.0	0.0	1	1.0	0.0	345.0	1	1.1	0.9				
	9	1	0.0	0.0	0.0	8.24	1	1.0	0.0	345.0	1	1.1	0.9				
	10	2	0.0	0.0	0.0	0.0	1	1.0	0.0	345.0	1	1.1	0.9				
	11	1	0.0	0.0	0.0	31.41	1	1.0	0.0	345.0	1	1.1	0.9				
	12	1	0.0	0.0	0.0	83.61	1	1.0	0.0	500.0	1	1.1	0.9				
	13	1	0.0	0.0	0.0	70.0	1	1.0	0.0	500.0	1	1.1	0.9				
	14	1	0.0	0.0	0.0	0.0	1	1.0	0.0	500.0	1	1.1	0.9				
	15	2	11.0	40.0	0.0	0.0	1	1.0	0.0	500.0	1	1.1	0.9				
	16	2	5.0	10.0	0.0	0.0	1	1.0	0.0	500.0	1	1.1	0.9				
	17	1	52.71	60.23	0.0	0.0	1	1.0	0.0	345.0	1	1.1	0.9				
	18	1	6.93	3.11	0.0	0.0	1	1.0	0.0	138.0	1	1.1	0.9				
	19	2	14.649999999999999	1.0	0.0	0.0	1	1.0	0.0	138.0	1	1.1	0.9				
	20	1	8.14	1.32	0.0	0.0	1	1.0	0.0	138.0	1	1.1	0.9				
	21	1	14.17	4.22	0.0	0.0	1	1.0	0.0	138.0	1	1.1	0.9				
	22	2	4.22	1.0	0.0	0.0	1	1.0	0.0	138.0	1	1.1	0.9				
	23	1	0.0	0.0	0.0	26.669999999999998	1	1.0	0.0	138.0	1	1.1	0.9				
	24	1	0.0	0.0	0.0	48.6	1	1.0	0.0	32.0	1	1.1	0.9				
	25	1	0.0	0.0	0.0	0.0	1	1.0	0.0	138.0	1	1.1	0.9				
	26	1	31.97	20.83	0.0	0.0	1	1.0	0.0	138.0	1	1.1	0.9				
	27	1	5.22	2.11	0.0	0.0	1	1.0	0.0	138.0	1	1.1	0.9				
	28	1	2.61	1.0	0.0	0.0	1	1.0	0.0	138.0	1	1.1	0.9				
	29	2	0.01	0.01	0.0	0.0	1	1.0	0.0	138.0	1	1.1	0.9				
	30	2	0.01	0.01	0.0	0.0	1	1.0	0.0	138.0	1	1.1	0.9				
	31	1	15.67	5.22	0.0	0.0	1	1.0	0.0	138.0	1	1.1	0.9				
	32	1	16.78	4.72	0.0	0.0	1	1.0	0.0	138.0	1	1.1	0.9				
	33	1	0.0	0.0	0.0	45.0	1	1.0	0.0	16.0	1	1.1	0.9				
	34	1	4.22	0.5	0.0	0.0	1	1.0	0.0	138.0	1	1.1	0.9				
	35	1	9.95	2.11	0.0	0.0	1	1.0	0.0	138.0	1	1.1	0.9				
	36	1	10.85	1.0	0.0	0.0	1	1.0	0.0	138.0	1	1.1	0.9				
	37	2	14.67	3.11	0.0	0.0	1	1.0	0.0	138.0	1	1.1	0.9				
	38	1	7.539999999999999	1.0	0.0	0.0	1	1.0	0.0	138.0	1	1.1	0.9				
	39	1	2.11	0.5	0.0	0.0	1	1.0	0.0	138.0	1	1.1	0.9				
	40	1	2.11	0.5	0.0	0.0	1	1.0	0.0	138.0	1	1.1	0.9				
	41	1	8.74	3.11	0.0	0.0	1	1.0	0.0	138.0	1	1.1	0.9				
	42	1	5.73	1.0	0.0	0.0	1	1.0	0.0	138.0	1	1.1	0.9				
	43	1	43.38	6.25	0.0	0.0	1	1.0	0.0	138.0	1	1.1	0.9				
	44	2	9.45	2.61	0.0	0.0	1	1.0	0.0	138.0	1	1.1	0.9				
	45	2	42.03	12.76	0.0	0.0	1	1.0	0.0	138.0	1	1.1	0.9				
	46	1	15.67	2.61	0.0	0.0	1	1.0	0.0	138.0	1	1.1	0.9				
	47	1	19.89	6.83	0.0	0.0	1	1.0	0.0	138.0	1	1.1	0.9				
	48	1	8.34	2.71	0.0	0.0	1	1.0	0.0	138.0	1	1.1	0.9				
	49	2	16.78	6.329999999999999	0.0	0.0	1	1.0	0.0	138.0	1	1.1	0.9				
	50	1	13.140000000000002	1.26	0.0	0.0	1	1.0	0.0	138.0	1	1.1	0.9				
	51	1	5.22	0.5	0.0	0.0	1	1.0	0.0	138.0	1	1.1	0.9				
	52	1	0.0	0.0	0.0	-16.07	1	1.0	0.0	138.0	1	1.1	0.9				
	53	1	68.66	4.97	0.0	-2.01	1	1.0	0.0	138.0	1	1.1	0.9				
	54	2	9.45	1.0	0.0	-0.93	1	1.0	0.0	138.0	1	1.1	0.9				
	55	1	8.34	3.11	0.0	0.0	1	1.0	0.0	138.0	1	1.1	0.9				
	56	1	0.0	0.0	0.0	0.0	1	1.0	0.0	138.0	1	1.1	0.9				
	57	1	19.16	2.01	0.0	0.0	1	1.0	0.0	138.0	1	1.1	0.9				
	58	2	30.44	4.22	0.0	0.0	1	1.0	0.0	138.0	1	1.1	0.9				
	59	1	18.89	4.72	0.0	0.0	1	1.0	0.0	138.0	1	1.1	0.9				
	60	2	11.55	1.0	0.0	0.0	1	1.0	0.0	138.0	1	1.1	0.9				
	61	1	17.78	4.22	0.0	0.0	1	1.0	0.0	138.0	1	1.1	0.9				
	62	1	0.0	0.0	0.0	0.0	1	1.0	0.0	138.0	1	1.1	0.9				
	63	1	0.0	0.0	0.0	-15.190000000000001	1	1.0	0.0	138.0	1	1.1	0.9				
	64	1	0.0	0.0	0.0	-14.11	1	1.0	0.0	138.0	1	1.1	0.9				
	65	1	0.0	0.0	0.0	0.0	1	1.0	0.0	500.0	1	1.1	0.9				
	66	1	0.0	0.0	0.0	30.47	2	1.0	0.0	345.0	2	1.1	0.9				
	67	1	0.0	0.0	0.0	-20.0	2	1.0	0.0	345.0	2	1.1	0.9				
	68	1	0.0	0.0	0.0	62.480000000000004	2	1.0	0.0	500.0	2	1.1	0.9				
	69	2	0.0	0.0	0.0	0.0	2	1.0	0.0	500.0	2	1.1	0.9				
	70	1	32.47	85.89	0.0	0.0	2	1.0	0.0	500.0	2	1.1	0.9				
	71	1	0.0	0.0	0.0	0.0	2	1.0	0.0	500.0	2	1.1	0.9				
	72	1	0.0	0.0	0.0	0.0	2	1.0	0.0	345.0	2	1.1	0.9				
	73	1	0.0	0.0	0.0	0.0	2	1.0	0.0	345.0	2	1.1	0.9				
	74	1	0.0	0.0	0.0	-84.68	2	1.0	0.0	345.0	2	1.1	0.9				
	75	2	0.0	0.0	0.0	0.0	2	1.0	0.0	345.0	2	1.1	0.9				
	76	1	42.84	29.609999999999996	0.0	0.0	2	1.0	0.0	345.0	2	1.1	0.9				
	77	1	0.0	0.0	0.0	83.62	2	1.0	0.0	500.0	2	1.1	0.9				
	78	1	0.0	0.0	0.0	70.0	2	1.0	0.0	500.0	2	1.1	0.9				
	79	1	0.0	0.0	0.0	0.0	2	1.0	0.0	500.0	2	1.1	0.9				
	80	2	11.0	40.0	0.0	0.0	2	1.0	0.0	500.0	2	1.1	0.9				
	81	2	5.0	10.0	0.0	0.0	2	1.0	0.0	500.0	2	1.1	0.9				
	82	1	52.71	60.23	0.0	0.0	2	1.0	0.0	345.0	2	1.1	0.9				
	83	1	6.93	3.11	0.0	0.0	2	1.0	0.0	138.0	2	1.1	0.9				
	84	2	14.649999999999999	1.0	0.0	0.0	2	1.0	0.0	138.0	2	1.1	0.9				
	85	1	8.14	1.32	0.0	0.0	2	1.0	0.0	138.0	2	1.1	0.9				
	86	1	14.17	4.22	0.0	0.0	2	1.0	0.0	138.0	2	1.1	0.9				
	87	2	4.22	1.0	0.0	0.0	2	1.0	0.0	138.0	2	1.1	0.9				
	88	1	61.49	28.470000000000002	0.0	0.0	2	1.0	0.0	138.0	2	1.1	0.9				
	89	1	0.0	0.0	0.0	48.6	2	1.0	0.0	32.0	2	1.1	0.9				
	90	1	0.0	0.0	0.0	0.0	2	1.0	0.0	138.0	2	1.1	0.9				
	91	1	3.95	20.83	0.0	0.0	2	1.0	0.0	138.0	2	1.1	0.9				
	92	1	5.22	2.11	0.0	0.0	2	1.0	0.0	138.0	2	1.1	0.9				
	93	1	2.61	1.0	0.0	0.0	2	1.0	0.0	138.0	2	1.1	0.9				
	94	2	0.01	0.01	0.0	0.0	2	1.0	0.0	138.0	2	1.1	0.9				
	95	2	0.01	0.01	0.0	0.0	2	1.0	0.0	138.0	2	1.1	0.9				
	96	1	15.67	5.22	0.0	0.0	2	1.0	0.0	138.0	2	1.1	0.9				
	97	1	16.78	4.72	0.0	0.0	2	1.0	0.0	138.0	2	1.1	0.9				
	98	1	0.0	0.0	0.0	45.0	2	1.0	0.0	16.0	2	1.1	0.9				
	99	1	4.22	0.5	0.0	0.0	2	1.0	0.0	138.0	2	1.1	0.9				
	100	1	9.95	2.11	0.0	0.0	2	1.0	0.0	138.0	2	1.1	0.9				
	101	1	10.85	1.0	0.0	0.0	2	1.0	0.0	138.0	2	1.1	0.9				
	102	2	14.67	3.11	0.0	0.0	2	1.0	0.0	138.0	2	1.1	0.9				
	103	1	7.539999999999999	1.0	0.0	0.0	2	1.0	0.0	138.0	2	1.1	0.9				
	104	1	2.11	0.5	0.0	0.0	2	1.0	0.0	138.0	2	1.1	0.9				
	105	1	2.11	0.5	0.0	0.0	2	1.0	0.0	138.0	2	1.1	0.9				
	106	1	8.74	3.11	0.0	0.0	2	1.0	0.0	138.0	2	1.1	0.9				
	107	1	5.73	1.0	0.0	0.0	2	1.0	0.0	138.0	2	1.1	0.9				
	108	1	43.11	6.25	0.0	0.0	2	1.0	0.0	138.0	2	1.1	0.9				
	109	2	9.45	2.61	0.0	0.0	2	1.0	0.0	138.0	2	1.1	0.9				
	110	2	42.03	12.76	0.0	0.0	2	1.0	0.0	138.0	2	1.1	0.9				
	111	1	15.67	2.61	0.0	0.0	2	1.0	0.0	138.0	2	1.1	0.9				
	112	1	19.89	6.83	0.0	0.0	2	1.0	0.0	138.0	2	1.1	0.9				
	113	1	8.34	2.71	0.0	0.0	2	1.0	0.0	138.0	2	1.1	0.9				
	114	2	16.78	6.329999999999999	0.0	0.0	2	1.0	0.0	138.0	2	1.1	0.9				
	115	1	13.140000000000002	1.26	0.0	0.0	2	1.0	0.0	138.0	2	1.1	0.9				
	116	1	5.22	0.5	0.0	0.0	2	1.0	0.0	138.0	2	1.1	0.9				
	117	1	0.0	0.0	0.0	-16.07	2	1.0	0.0	138.0	2	1.1	0.9				
	118	1	68.66	4.97	0.0	-2.01	2	1.0	0.0	138.0	2	1.1	0.9				
	119	2	9.45	1.0	0.0	1.92	2	1.0	0.0	138.0	2	1.1	0.9				
	120	1	8.34	3.11	0.0	0.0	2	1.0	0.0	138.0	2	1.1	0.9				
	121	1	0.0	0.0	0.0	0.0	2	1.0	0.0	138.0	2	1.1	0.9				
	122	1	19.16	2.01	0.0	0.0	2	1.0	0.0	138.0	2	1.1	0.9				
	123	2	30.44	4.22	0.0	0.0	2	1.0	0.0	138.0	2	1.1	0.9				
	124	1	18.89	4.72	0.0	0.0	2	1.0	0.0	138.0	2	1.1	0.9				
	125	2	11.55	1.0	0.0	0.0	2	1.0	0.0	138.0	2	1.1	0.9				
	126	1	17.78	4.22	0.0	0.0	2	1.0	0.0	138.0	2	1.1	0.9				
	127	1	0.0	0.0	0.0	0.0	2	1.0	0.0	138.0	2	1.1	0.9				
	128	1	0.0	0.0	0.0	-15.190000000000001	2	1.0	0.0	138.0	2	1.1	0.9				
	129	1	0.0	0.0	0.0	-14.11	2	1.0	0.0	138.0	2	1.1	0.9				
	130	1	0.0	0.0	0.0	0.0	2	1.0	0.0	500.0	2	1.1	0.9				
	131	1	40.59	70.73	0.0	0.0	3	1.0	0.0	345.0	3	1.1	0.9				
	132	1	0.0	0.0	0.0	-176.98	3	1.0	0.0	345.0	3	1.1	0.9				
	133	2	0.0	0.0	0.0	0.0	3	1.0	0.0	500.0	3	1.1	0.9				
	134	1	0.0	0.0	0.0	0.0	3	1.0	0.0	500.0	3	1.1	0.9				
	135	1	0.0	0.0	0.0	17.28	3	1.0	0.0	500.0	3	1.1	0.9				
	136	1	8.38	1.2	0.0	0.0	3	1.0	0.0	138.0	3	1.1	0.9				
	137	1	4.83	1.1	0.0	0.0	3	1.0	0.0	138.0	3	1.1	0.9				
	138	2	0.0	0.0	0.0	0.0	3	1.0	0.0	138.0	3	1.1	0.9				
	139	1	11.55	5.82	0.0	0.0	3	1.0	0.0	138.0	3	1.1	0.9				
	140	1	13.16	4.92	0.0	0.0	3	1.0	0.0	138.0	3	1.1	0.9				
	141	1	26.039999999999996	3.35	0.0	0.0	3	1.0	0.0	138.0	3	1.1	0.9				
	142	1	12.560000000000002	2.11	0.0	13.51	3	1.0	0.0	138.0	3	1.1	0.9				
	143	1	4.72	0.7	0.0	0.0	3	1.0	0.0	138.0	3	1.1	0.9				
	144	1	9.45	-3.27	0.0	0.0	3	1.0	0.0	138.0	3	1.1	0.9				
	145	1	10.15	4.22	0.0	0.0	3	1.0	0.0	138.0	3	1.1	0.9				
	146	1	0.0	0.0	0.0	0.0	3	1.0	0.0	138.0	3	1.1	0.9				
	147	1	0.0	0.0	0.0	0.0	3	1.0	0.0	138.0	3	1.1	0.9				
	148	1	0.0	0.0	0.0	0.0	3	1.0	0.0	138.0	3	1.1	0.9				
	149	1	0.0	0.0	0.0	60.0	3	1.0	0.0	16.0	3	1.1	0.9				
	150	1	17.78	4.22	0.0	0.0	3	1.0	0.0	138.0	3	1.1	0.9				
	151	1	8.04	4.12	0.0	0.0	3	1.0	0.0	138.0	3	1.1	0.9				
	152	2	0.01	0.01	0.0	0.0	3	1.0	0.0	138.0	3	1.1	0.9				
	153	2	73.33	31.39	0.0	0.0	3	1.0	0.0	138.0	3	1.1	0.9				
	154	1	62.9	26.21	0.0	0.0	3	1.0	0.0	138.0	3	1.1	0.9				
	155	1	0.0	0.0	0.0	0.0	3	1.0	0.0	138.0	3	1.1	0.9				
	156	1	8.34	2.61	0.0	0.0	3	1.0	0.0	138.0	3	1.1	0.9				
	157	1	5.12	0.68	0.0	0.0	3	1.0	0.0	138.0	3	1.1	0.9				
	158	1	15.17	4.72	0.0	0.0	3	1.0	0.0	138.0	3	1.1	0.9				
	159	1	13.66	6.329999999999999	0.0	2.71	3	1.0	0.0	138.0	3	1.1	0.9				
	160	1	8.94	2.32	0.0	3.95	3	1.0	0.0	138.0	3	1.1	0.9				
	161	1	13.99	11.8	0.0	0.0	3	1.0	0.0	138.0	3	1.1	0.9				
	162	1	9.45	2.21	0.0	0.0	3	1.0	0.0	138.0	3	1.1	0.9				
	163	1	11.55	2.61	0.0	0.0	3	1.0	0.0	138.0	3	1.1	0.9				
	164	1	3.92	1.6099999999999999	0.0	0.0	3	1.0	0.0	138.0	3	1.1	0.9				
	165	1	16.28	5.22	0.0	3.3300000000000005	3	1.0	0.0	138.0	3	1.1	0.9				
	166	1	12.46	5.82	0.0	0.0	3	1.0	0.0	138.0	3	1.1	0.9				
	167	1	0.0	0.0	0.0	15.410000000000002	3	1.0	0.0	138.0	3	1.1	0.9				
	168	1	12.560000000000002	4.22	0.0	-33.87	3	1.0	0.0	138.0	3	1.1	0.9				
	169	1	23.61	4.72	0.0	0.0	3	1.0	0.0	138.0	3	1.1	0.9				
	170	1	0.1	0.1	0.0	0.0	3	1.0	0.0	138.0	3	1.1	0.9				
	171	1	0.1	0.1	0.0	0.0	3	1.0	0.0	138.0	3	1.1	0.9				
	172	2	9.45	2.31	0.0	0.0	3	1.0	0.0	138.0	3	1.1	0.9				
	173	1	13.56	6.23	0.0	0.0	3	1.0	0.0	138.0	3	1.1	0.9				
	174	1	6.83	2.61	0.0	0.0	3	1.0	0.0	138.0	3	1.1	0.9				
	175	1	4.72	2.61	0.0	0.0	3	1.0	0.0	138.0	3	1.1	0.9				
	176	1	6.329999999999999	0.9000000000000001	0.0	0.0	3	1.0	0.0	138.0	3	1.1	0.9				
	177	1	4.12	2.51	0.0	0.0	3	1.0	0.0	138.0	3	1.1	0.9				
	178	2	0.01	0.01	0.0	0.0	3	1.0	0.0	138.0	3	1.1	0.9				
	179	1	44.31	-3.0	0.0	0.0	3	1.0	0.0	138.0	3	1.1	0.9				
	180	1	6.329999999999999	1.5700000000000003	0.0	1.7500000000000002	3	1.0	0.0	138.0	3	1.1	0.9				
	181	1	61.44	45.53	0.0	0.0	4	1.0	0.0	345.0	4	1.1	0.9				
	182	1	0.0	0.0	0.0	0.0	4	1.0	0.0	345.0	4	1.1	0.9				
	183	2	33.51	159.4	0.0	0.0	4	1.0	0.0	345.0	4	1.1	0.9				
	184	2	19.91	36.57	0.0	0.0	4	1.0	0.0	345.0	4	1.1	0.9				
	185	2	12.0	30.0	0.0	0.0	4	1.0	0.0	500.0	4	1.1	0.9				
	186	2	12.0	30.0	0.0	0.0	4	1.0	0.0	500.0	4	1.1	0.9				
	187	2	0.0	0.0	0.0	0.0	4	1.0	0.0	500.0	4	1.1	0.9				
	188	1	0.0	0.0	0.0	93.07	4	1.0	0.0	500.0	4	1.1	0.9				
	189	1	33.41	22.47	0.0	0.0	4	1.0	0.0	345.0	4	1.1	0.9				
	190	1	18.51	68.88	0.0	0.0	4	1.0	0.0	345.0	4	1.1	0.9				
	191	1	14.74	4.03	0.0	0.0	4	1.0	0.0	345.0	4	1.1	0.9				
	192	1	0.0	0.0	0.0	168.92	4	1.0	0.0	500.0	4	1.1	0.9				
	193	1	32.23	53.02	0.0	0.0	4	1.0	0.0	345.0	4	1.1	0.9				
	194	1	81.5	85.9	0.0	0.0	4	1.0	0.0	345.0	4	1.1	0.9				
	195	1	0.0	0.0	0.0	0.0	4	1.0	0.0	500.0	4	1.1	0.9				
	196	1	0.0	0.0	0.0	0.0	4	1.0	0.0	500.0	4	1.1	0.9				
	197	1	0.0	0.0	0.0	-59.0	4	1.0	0.0	500.0	4	1.1	0.9				
	198	1	10.84	2.51	0.0	0.0	4	1.0	0.0	138.0	4	1.1	0.9				
	199	2	129.48	36.94	0.0	0.0	4	1.0	0.0	138.0	4	1.1	0.9				
	200	1	0.0	0.0	0.0	0.0	4	1.0	0.0	138.0	4	1.1	0.9				
...
];

%% generator data
%    bus    Pg    Qg    Qmax    Qmin    Vg    mBase    status    Pmax    Pmin    Pc1    Pc2    Qc1min    Qc1max    Qc2min    Qc2max    ramp_agc    ramp_10    ramp_30    ramp_q    apf
mpc.gen = [
	3	0.0	0.0	33.33	-33.33	1.0	100.0	0	137.95	122.96000000000001	0.0	0.0	0.0	0.0	0.0	0.0	0.0	0.0	0.0	0.0	137.955				
	4	226.96	-34.935	279.47	-349.34	1.0	100.0	1	281.74	172.18	0.0	0.0	0.0	0.0	0.0	0.0	0.0	0.0	0.0	0.0	281.739				
	9	0.0	0.0	33.33	-33.33	1.0	100.0	0	85.25	70.25	0.0	0.0	0.0	0.0	0.0	0.0	0.0	0.0	0.0	0.0	85.248				
	10	159.645	-2.565	20.51	-25.64	1.0	100.0	1	221.78999999999996	97.5	0.0	0.0	0.0	0.0	0.0	0.0	0.0	0.0	0.0	0.0	221.788				
	15	-10.5	21.5	105.0	-62.0	1.0	216.55	1	179.0	-200.0	0.0	0.0	0.0	0.0	0.0	0.0	0.0	0.0	0.0	0.0	179.0				
	15	-10.5	21.5	105.0	-62.0	1.0	179.0	1	179.0	-200.0	0.0	0.0	0.0	0.0	0.0	0.0	0.0	0.0	0.0	0.0	179.0				
	15	-10.5	27.500000000000004	130.0	-75.0	1.0	179.0	1	179.0	-200.0	0.0	0.0	0.0	0.0	0.0	0.0	0.0	0.0	0.0	0.0	179.0				
	16	-10.5	30.0	160.0	-100.0	1.0	179.0	1	179.0	-200.0	0.0	0.0	0.0	0.0	0.0	0.0	0.0	0.0	0.0	0.0	179.0				
	19	40.5	-65.0	35.0	-165.0	1.0	58.99	1	55.00000000000001	26.0	0.0	0.0	0.0	0.0	0.0	0.0	0.0	0.0	0.0	0.0	55.0				
	20	0.0	0.0	18.33	-18.33	1.0	55.0	0	55.00000000000001	26.0	0.0	0.0	0.0	0.0	0.0	0.0	0.0	0.0	0.0	0.0	55.0				
	22	142.5	2.0	184.0	-180.0	1.0	0.36	1	285.0	0.0	0.0	0.0	0.0	0.0	0.0	0.0	0.0	0.0	0.0	0.0	285.0				
	29	9.0	0.5	178.0	-177.0	1.0	18.0	1	18.0	0.0	0.0	0.0	0.0	0.0	0.0	0.0	0.0	0.0	0.0	0.0	18.0				
	30	11.0	-0.5	179.0	-180.0	1.0	22.0	1	22.0	0.0	0.0	0.0	0.0	0.0	0.0	0.0	0.0	0.0	0.0	0.0	22.0				
	37	148.0	9.0	186.0	-168.0	1.0	0.24	1	296.0	0.0	0.0	0.0	0.0	0.0	0.0	0.0	0.0	0.0	0.0	0.0	296.0				
	44	135.0	4.5	178.0	-169.0	1.0	2.0	1	269.0	1.0	0.0	0.0	0.0	0.0	0.0	0.0	0.0	0.0	0.0	0.0	269.0				
	45	7.5	11.0	188.0	-166.0	1.0	15.0	1	15.0	0.0	0.0	0.0	0.0	0.0	0.0	0.0	0.0	0.0	0.0	0.0	15.0				
	49	142.5	5.5	191.0	-180.0	1.0	1.0	1	285.0	0.0	0.0	0.0	0.0	0.0	0.0	0.0	0.0	0.0	0.0	0.0	285.0				
	54	129.0	10.0	189.0	-169.0	1.0	0.12	1	258.0	0.0	0.0	0.0	0.0	0.0	0.0	0.0	0.0	0.0	0.0	0.0	258.0				
	54	0.0	0.0	33.33	-33.33	1.0	100.0	0	34.44	19.44	0.0	0.0	0.0	0.0	0.0	0.0	0.0	0.0	0.0	0.0	34.44				
	58	148.5	9.0	198.0	-180.0	1.0	9.0	1	297.0	0.0	0.0	0.0	0.0	0.0	0.0	0.0	0.0	0.0	0.0	0.0	297.0				
	60	139.0	-2.5	179.0	-184.0	1.0	0.24	1	278.0	0.0	0.0	0.0	0.0	0.0	0.0	0.0	0.0	0.0	0.0	0.0	278.0				
	68	0.0	0.0	33.33	-33.33	1.0	100.0	0	137.95	122.96000000000001	0.0	0.0	0.0	0.0	0.0	0.0	0.0	0.0	0.0	0.0	137.955				
	69	226.96	-35.27	282.12	-352.66	1.0	100.0	1	281.74	172.18	0.0	0.0	0.0	0.0	0.0	0.0	0.0	0.0	0.0	0.0	281.739				
	74	0.0	0.0	33.33	-33.33	1.0	100.0	0	85.25	70.25	0.0	0.0	0.0	0.0	0.0	0.0	0.0	0.0	0.0	0.0	85.248				
	75	149.935	-5.19	41.51	-51.89	1.0	100.0	1	221.78999999999996	78.08	0.0	0.0	0.0	0.0	0.0	0.0	0.0	0.0	0.0	0.0	221.788				
	80	-10.5	21.5	105.0	-62.0	1.0	216.55	1	179.0	-200.0	0.0	0.0	0.0	0.0	0.0	0.0	0.0	0.0	0.0	0.0	179.0				
	80	-10.5	21.5	105.0	-62.0	1.0	179.0	1	179.0	-200.0	0.0	0.0	0.0	0.0	0.0	0.0	0.0	0.0	0.0	0.0	179.0				
	80	-10.5	27.500000000000004	130.0	-75.0	1.0	179.0	1	179.0	-200.0	0.0	0.0	0.0	0.0	0.0	0.0	0.0	0.0	0.0	0.0	179.0				
	81	-10.5	30.0	160.0	-100.0	1.0	179.0	1	179.0	-200.0	0.0	0.0	0.0	0.0	0.0	0.0	0.0	0.0	0.0	0.0	179.0				
	84	40.5	-70.0	35.0	-175.0	1.0	58.99	1	55.00000000000001	26.0	0.0	0.0	0.0	0.0	0.0	0.0	0.0	0.0	0.0	0.0	55.0				
	85	0.0	0.0	18.33	-18.33	1.0	55.0	0	55.00000000000001	26.0	0.0	0.0	0.0	0.0	0.0	0.0	0.0	0.0	0.0	0.0	55.0				
	87	128.0	9.5	197.0	-178.0	1.0	0.36	1	256.0	0.0	0.0	0.0	0.0	0.0	0.0	0.0	0.0	0.0	0.0	0.0	256.0				
	94	9.0	4.5	179.0	-170.0	1.0	18.0	1	18.0	0.0	0.0	0.0	0.0	0.0	0.0	0.0	0.0	0.0	0.0	0.0	18.0				
	95	11.0	7.5	199.0	-184.0	1.0	22.0	1	22.0	0.0	0.0	0.0	0.0	0.0	0.0	0.0	0.0	0.0	0.0	0.0	22.0				
	102	134.0	8.0	182.0	-166.0	1.0	0.24	1	268.0	0.0	0.0	0.0	0.0	0.0	0.0	0.0	0.0	0.0	0.0	0.0	268.0				
	109	134.5	3.5000000000000004	191.0	-184.0	1.0	2.0	1	268.0	1.0	0.0	0.0	0.0	0.0	0.0	0.0	0.0	0.0	0.0	0.0	268.0				
	110	7.5	7.5	191.0	-176.0	1.0	15.0	1	15.0	0.0	0.0	0.0	0.0	0.0	0.0	0.0	0.0	0.0	0.0	0.0	15.0				
	114	149.0	6.0	183.0	-171.0	1.0	1.0	1	298.0	0.0	0.0	0.0	0.0	0.0	0.0	0.0	0.0	0.0	0.0	0.0	298.0				
	119	141.5	12.5	192.0	-167.0	1.0	0.12	1	283.0	0.0	0.0	0.0	0.0	0.0	0.0	0.0	0.0	0.0	0.0	0.0	283.0				
	119	0.0	0.0	33.33	-33.33	1.0	100.0	0	34.44	19.44	0.0	0.0	0.0	0.0	0.0	0.0	0.0	0.0	0.0	0.0	34.44				
	123	132.0	14.000000000000002	200.0	-172.0	1.0	9.0	1	264.0	0.0	0.0	0.0	0.0	0.0	0.0	0.0	0.0	0.0	0.0	0.0	264.0				
	125	126.49999999999999	14.499999999999998	196.0	-167.0	1.0	0.24	1	252.99999999999997	0.0	0.0	0.0	0.0	0.0	0.0	0.0	0.0	0.0	0.0	0.0	253.0				
	132	0.0	0.0	33.33	-33.33	1.0	100.0	0	35.29	20.29	0.0	0.0	0.0	0.0	0.0	0.0	0.0	0.0	0.0	0.0	35.288				
	133	227.105	0.0	202.93	-202.93	1.0	100.0	1	393.52	60.69	0.0	0.0	0.0	0.0	0.0	0.0	0.0	0.0	0.0	0.0	393.516				
	135	0.0	0.0	33.33	-33.33	1.0	100.0	0	101.88999999999999	86.89	0.0	0.0	0.0	0.0	0.0	0.0	0.0	0.0	0.0	0.0	101.886				
	138	22.1	0.0	12.48	-12.48	1.0	100.0	1	33.73	10.47	0.0	0.0	0.0	0.0	0.0	0.0	0.0	0.0	0.0	0.0	33.726				
	142	0.0	0.0	33.33	-33.33	1.0	100.0	0	25.239999999999995	10.24	0.0	0.0	0.0	0.0	0.0	0.0	0.0	0.0	0.0	0.0	25.238				
	144	0.0	0.0	2.33	-2.33	1.0	7.0	0	270.0	5.0	0.0	0.0	0.0	0.0	0.0	0.0	0.0	0.0	0.0	0.0	270.0				
	152	20.5	10.5	192.0	-171.0	1.0	41.0	1	41.0	0.0	0.0	0.0	0.0	0.0	0.0	0.0	0.0	0.0	0.0	0.0	41.0				
	153	12.5	-77.26	23.48	-178.0	1.0	37.52	1	25.0	0.0	0.0	0.0	0.0	0.0	0.0	0.0	0.0	0.0	0.0	0.0	25.0				
	153	17.5	-68.78	32.44	-170.0	1.0	35.0	1	35.0	0.0	0.0	0.0	0.0	0.0	0.0	0.0	0.0	0.0	0.0	0.0	35.0				
	153	0.0	0.0	8.33	-8.33	1.0	25.0	0	25.0	0.0	0.0	0.0	0.0	0.0	0.0	0.0	0.0	0.0	0.0	0.0	25.0				
	157	0.0	0.0	0.67	-0.67	1.0	2.0	0	266.0	0.0	0.0	0.0	0.0	0.0	0.0	0.0	0.0	0.0	0.0	0.0	266.0				
	159	0.0	0.0	33.33	-33.33	1.0	100.0	0	52.21	37.21	0.0	0.0	0.0	0.0	0.0	0.0	0.0	0.0	0.0	0.0	52.208				
	160	0.0	0.0	33.33	-33.33	1.0	100.0	0	274.0	0.0	0.0	0.0	0.0	0.0	0.0	0.0	0.0	0.0	0.0	0.0	274.0				
	167	0.0	0.0	33.33	-33.33	1.0	100.0	0	27.97	12.97	0.0	0.0	0.0	0.0	0.0	0.0	0.0	0.0	0.0	0.0	27.972				
	168	0.0	0.0	33.33	-33.33	1.0	100.0	0	26.839999999999996	11.84	0.0	0.0	0.0	0.0	0.0	0.0	0.0	0.0	0.0	0.0	26.842				
	172	138.0	-1.5	181.0	-184.0	1.0	0.36	1	276.0	0.0	0.0	0.0	0.0	0.0	0.0	0.0	0.0	0.0	0.0	0.0	276.0				
	178	9.0	1.0	185.0	-183.0	1.0	18.0	1	18.0	0.0	0.0	0.0	0.0	0.0	0.0	0.0	0.0	0.0	0.0	0.0	18.0				
	180	0.0	0.0	1.33	-1.33	1.0	4.0	0	277.0	0.0	0.0	0.0	0.0	0.0	0.0	0.0	0.0	0.0	0.0	0.0	277.0				
	183	170.0	58.875	138.75	-21.0	1.0	253.76	1	204.99999999999997	135.0	0.0	0.0	0.0	0.0	0.0	0.0	0.0	0.0	0.0	0.0	205.0				
	184	0.0	0.0	74.0	-74.0	1.0	222.0	0	222.00000000000003	90.0	0.0	0.0	0.0	0.0	0.0	0.0	0.0	0.0	0.0	0.0	222.0				
	184	0.0	0.0	68.33	-68.33	1.0	205.0	0	204.99999999999997	135.0	0.0	0.0	0.0	0.0	0.0	0.0	0.0	0.0	0.0	0.0	205.0				
	184	166.0	44.0	119.0	-31.0	1.0	232.0	1	231.99999999999997	100.0	0.0	0.0	0.0	0.0	0.0	0.0	0.0	0.0	0.0	0.0	232.0				
	185	170.215	56.25	127.49999999999999	-15.0	1.0	268.92	1	250.43	90.0	0.0	0.0	0.0	0.0	0.0	0.0	0.0	0.0	0.0	0.0	250.434				
	186	0.0	0.0	77.33	-77.33	1.0	232.0	0	231.99999999999997	100.0	0.0	0.0	0.0	0.0	0.0	0.0	0.0	0.0	0.0	0.0	232.0				
	186	170.0	56.25	127.49999999999999	-15.0	1.0	268.92	1	250.0	90.0	0.0	0.0	0.0	0.0	0.0	0.0	0.0	0.0	0.0	0.0	250.0				
	187	924.65	-9.035	72.29	-90.36	1.0	100.0	1	1241.44	607.86	0.0	0.0	0.0	0.0	0.0	0.0	0.0	0.0	0.0	0.0	1241.4449				
	199	156.0	49.0	117.0	-19.0	1.0	222.0	1	222.00000000000003	90.0	0.0	0.0	0.0	0.0	0.0	0.0	0.0	0.0	0.0	0.0	222.0				
	205	149.54	11.0	193.0	-171.0	1.0	4.0	1	297.0	2.08	0.0	0.0	0.0	0.0	0.0	0.0	0.0	0.0	0.0	0.0	297.0				
	205	0.0	0.0	33.33	-33.33	1.0	100.0	0	28.32	13.309999999999999	0.0	0.0	0.0	0.0	0.0	0.0	0.0	0.0	0.0	0.0	28.315				
	206	0.0	0.0	33.33	-33.33	1.0	100.0	0	34.72	19.72	0.0	0.0	0.0	0.0	0.0	0.0	0.0	0.0	0.0	0.0	34.719				
	210	130.25	13.0	194.0	-168.0	1.0	6.0	1	258.0	2.5	0.0	0.0	0.0	0.0	0.0	0.0	0.0	0.0	0.0	0.0	258.0				
	222	13.0	7.5	192.0	-177.0	1.0	26.0	1	26.0	0.0	0.0	0.0	0.0	0.0	0.0	0.0	0.0	0.0	0.0	0.0	26.0				
	222	0.0	0.0	33.33	-33.33	1.0	100.0	0	273.0	0.27	0.0	0.0	0.0	0.0	0.0	0.0	0.0	0.0	0.0	0.0	273.0				
	226	130.5	13.5	198.0	-171.0	1.0	2.0	1	261.0	0.0	0.0	0.0	0.0	0.0	0.0	0.0	0.0	0.0	0.0	0.0	261.0				
	227	25.0	8.0	188.0	-172.0	1.0	50.0	1	50.0	0.0	0.0	0.0	0.0	0.0	0.0	0.0	0.0	0.0	0.0	0.0	50.0				
	230	127.0	-2.0	179.0	-183.0	1.0	108.13	1	254.0	0.0	0.0	0.0	0.0	0.0	0.0	0.0	0.0	0.0	0.0	0.0	254.0				
	237	0.0	0.0	23.73	-23.73	1.0	71.2	0	45.15	0.0	0.0	0.0	0.0	0.0	0.0	0.0	0.0	0.0	0.0	0.0	45.15				
	237	0.0	0.0	23.73	-23.73	1.0	71.2	0	45.15	0.0	0.0	0.0	0.0	0.0	0.0	0.0	0.0	0.0	0.0	0.0	45.15				
	248	0.0	0.0	33.33	-33.33	1.0	100.0	0	298.0	8.35	0.0	0.0	0.0	0.0	0.0	0.0	0.0	0.0	0.0	0.0	298.0				
	271	33.485	-1.6500000000000001	13.209999999999999	-16.51	1.0	100.0	1	50.41	16.56	0.0	0.0	0.0	0.0	0.0	0.0	0.0	0.0	0.0	0.0	50.412				
	275	118.06	0.0	27.49	-27.49	1.0	100.0	1	146.28	89.84	0.0	0.0	0.0	0.0	0.0	0.0	0.0	0.0	0.0	0.0	146.284				
	278	18.225	0.0	24.5	-24.5	1.0	100.0	1	26.700000000000003	9.75	0.0	0.0	0.0	0.0	0.0	0.0	0.0	0.0	0.0	0.0	26.697				
	280	0.0	0.0	23.73	-23.73	1.0	71.2	0	45.15	0.0	0.0	0.0	0.0	0.0	0.0	0.0	0.0	0.0	0.0	0.0	45.15				
	280	0.0	0.0	23.73	-23.73	1.0	71.2	0	45.15	0.0	0.0	0.0	0.0	0.0	0.0	0.0	0.0	0.0	0.0	0.0	45.15				
	281	41.745	94.725	198.0	-8.55	1.0	100.0	1	64.19	19.3	0.0	0.0	0.0	0.0	0.0	0.0	0.0	0.0	0.0	0.0	64.187				
	296	579.815	1.0	101.0	-99.0	1.0	600.0	1	825.3	334.33	0.0	0.0	0.0	0.0	0.0	0.0	0.0	0.0	0.0	0.0	825.299				
	296	594.89	1.0	101.0	-99.0	1.0	600.0	1	846.64	343.14	0.0	0.0	0.0	0.0	0.0	0.0	0.0	0.0	0.0	0.0	846.641				
	309	0.0	0.0	43.33	-43.33	1.0	130.0	0	158.49	28.499999999999996	0.0	0.0	0.0	0.0	0.0	0.0	0.0	0.0	0.0	0.0	158.49				
	309	0.0	0.0	43.33	-43.33	1.0	130.0	0	156.39	28.499999999999996	0.0	0.0	0.0	0.0	0.0	0.0	0.0	0.0	0.0	0.0	156.39				
	315	0.0	0.0	23.73	-23.73	1.0	71.2	0	45.15	0.0	0.0	0.0	0.0	0.0	0.0	0.0	0.0	0.0	0.0	0.0	45.15				
	315	0.0	0.0	23.73	-23.73	1.0	71.2	0	45.15	0.0	0.0	0.0	0.0	0.0	0.0	0.0	0.0	0.0	0.0	0.0	45.15				
	326	31.7	87.655	180.0	-4.69	1.0	100.0	1	41.4	22.0	0.0	0.0	0.0	0.0	0.0	0.0	0.0	0.0	0.0	0.0	41.398				
	352	0.0	0.0	19.0	-19.0	1.0	57.0	0	66.3	51.300000000000004	0.0	0.0	0.0	0.0	0.0	0.0	0.0	0.0	0.0	0.0	66.3				
	352	0.0	0.0	19.0	-19.0	1.0	57.0	0	64.4	49.4	0.0	0.0	0.0	0.0	0.0	0.0	0.0	0.0	0.0	0.0	64.4				
	353	0.0	0.0	33.33	-33.33	1.0	100.0	0	25.66	10.66	0.0	0.0	0.0	0.0	0.0	0.0	0.0	0.0	0.0	0.0	25.66				
	355	0.0	0.0	7.670000000000001	-7.670000000000001	1.0	23.0	0	32.1	17.1	0.0	0.0	0.0	0.0	0.0	0.0	0.0	0.0	0.0	0.0	32.1				
	355	0.0	0.0	7.670000000000001	-7.670000000000001	1.0	23.0	0	32.1	17.1	0.0	0.0	0.0	0.0	0.0	0.0	0.0	0.0	0.0	0.0	32.1				
	356	0.0	0.0	51.33	-51.33	1.0	154.0	0	267.0	0.0	0.0	0.0	0.0	0.0	0.0	0.0	0.0	0.0	0.0	0.0	267.0				
	359	0.0	0.0	7.670000000000001	-7.670000000000001	1.0	23.0	0	33.05	18.05	0.0	0.0	0.0	0.0	0.0	0.0	0.0	0.0	0.0	0.0	33.05				
	359	0.0	0.0	7.670000000000001	-7.670000000000001	1.0	23.0	0	32.1	17.1	0.0	0.0	0.0	0.0	0.0	0.0	0.0	0.0	0.0	0.0	32.1				
	361	140.0	9.5	199.0	-180.0	1.0	100.0	1	280.0	0.0	0.0	0.0	0.0	0.0	0.0	0.0	0.0	0.0	0.0	0.0	280.0				
	361	12.25	97.73	198.0	-2.54	1.0	71.0	1	19.75	4.75	0.0	0.0	0.0	0.0	0.0	0.0	0.0	0.0	0.0	0.0	19.75				
	361	0.0	0.0	1.33	-1.33	1.0	4.0	0	264.0	1.14	0.0	0.0	0.0	0.0	0.0	0.0	0.0	0.0	0.0	0.0	264.0				
	362	78.815	94.815	197.0	-7.37	1.0	100.0	1	92.8	64.83	0.0	0.0	0.0	0.0	0.0	0.0	0.0	0.0	0.0	0.0	92.796				
	364	0.0	0.0	19.0	-19.0	1.0	57.0	0	66.3	51.300000000000004	0.0	0.0	0.0	0.0	0.0	0.0	0.0	0.0	0.0	0.0	66.3				
	364	0.0	0.0	19.0	-19.0	1.0	57.0	0	61.55	46.55	0.0	0.0	0.0	0.0	0.0	0.0	0.0	0.0	0.0	0.0	61.55				
	365	0.0	0.0	33.33	-33.33	1.0	100.0	0	250.99999999999997	1.42	0.0	0.0	0.0	0.0	0.0	0.0	0.0	0.0	0.0	0.0	251.0				
	365	139.065	96.74	195.0	-1.52	1.0	100.0	1	273.0	5.13	0.0	0.0	0.0	0.0	0.0	0.0	0.0	0.0	0.0	0.0	273.0				
	366	164.085	0.0	26.69	-26.69	1.0	100.0	1	196.9	131.27	0.0	0.0	0.0	0.0	0.0	0.0	0.0	0.0	0.0	0.0	196.904				
	368	73.69	98.17	199.0	-2.66	1.0	100.0	1	87.21	60.17	0.0	0.0	0.0	0.0	0.0	0.0	0.0	0.0	0.0	0.0	87.208				
	369	0.0	0.0	10.0	-10.0	1.0	30.0	0	37.8	22.8	0.0	0.0	0.0	0.0	0.0	0.0	0.0	0.0	0.0	0.0	37.8				
	369	0.0	0.0	10.0	-10.0	1.0	30.0	0	37.8	22.8	0.0	0.0	0.0	0.0	0.0	0.0	0.0	0.0	0.0	0.0	37.8				
	371	0.0	0.0	7.670000000000001	-7.670000000000001	1.0	23.0	0	32.1	17.1	0.0	0.0	0.0	0.0	0.0	0.0	0.0	0.0	0.0	0.0	32.1				
	371	0.0	0.0	7.670000000000001	-7.670000000000001	1.0	23.0	0	32.1	17.1	0.0	0.0	0.0	0.0	0.0	0.0	0.0	0.0	0.0	0.0	32.1				
	375	0.0	0.0	33.33	-33.33	1.0	100.0	0	139.83	124.83	0.0	0.0	0.0	0.0	0.0	0.0	0.0	0.0	0.0	0.0	139.826				
	382	0.0	0.0	46.67	-46.67	1.0	140.0	0	281.0	0.0	0.0	0.0	0.0	0.0	0.0	0.0	0.0	0.0	0.0	0.0	281.0				
	385	37.075	0.0	14.790000000000001	-14.790000000000001	1.0	100.0	1	47.26	26.890000000000004	0.0	0.0	0.0	0.0	0.0	0.0	0.0	0.0	0.0	0.0	47.263				
	388	0.0	0.0	10.0	-10.0	1.0	30.0	0	35.9	20.9	0.0	0.0	0.0	0.0	0.0	0.0	0.0	0.0	0.0	0.0	35.9				
	388	0.0	0.0	10.0	-10.0	1.0	30.0	0	36.85	21.85	0.0	0.0	0.0	0.0	0.0	0.0	0.0	0.0	0.0	0.0	36.85				
	390	581.425	0.0	33.19	-33.19	1.0	100.0	1	697.71	465.14	0.0	0.0	0.0	0.0	0.0	0.0	0.0	0.0	0.0	0.0	697.71				
	395	268.01	0.0	34.72	-34.72	1.0	100.0	1	321.61	214.41	0.0	0.0	0.0	0.0	0.0	0.0	0.0	0.0	0.0	0.0	321.615				
	398	0.0	0.0	7.670000000000001	-7.670000000000001	1.0	23.0	0	32.1	17.1	0.0	0.0	0.0	0.0	0.0	0.0	0.0	0.0	0.0	0.0	32.1				
	398	0.0	0.0	7.670000000000001	-7.670000000000001	1.0	23.0	0	33.05	18.05	0.0	0.0	0.0	0.0	0.0	0.0	0.0	0.0	0.0	0.0	33.05				
	400	0.0	0.0	66.67	-66.67	1.0	200.0	0	155.4	140.6	0.0	0.0	0.0	0.0	0.0	0.0	0.0	0.0	0.0	0.0	155.4				
	401	0.0	0.0	51.33	-51.33	1.0	154.0	0	271.0	0.0	0.0	0.0	0.0	0.0	0.0	0.0	0.0	0.0	0.0	0.0	271.0				
	407	0.0	0.0	50.0	-50.0	1.0	150.0	0	294.0	242.25	0.0	0.0	0.0	0.0	0.0	0.0	0.0	0.0	0.0	0.0	294.0				
	411	143.0	9.0	190.0	-172.0	1.0	100.0	1	286.0	0.0	0.0	0.0	0.0	0.0	0.0	0.0	0.0	0.0	0.0	0.0	286.0				
	414	359.305	0.0	53.15	-53.15	1.0	100.0	1	431.17	287.44	0.0	0.0	0.0	0.0	0.0	0.0	0.0	0.0	0.0	0.0	431.167				
	422	50.47999999999999	-2.31	18.48	-23.1	1.0	100.0	1	65.27	35.69	0.0	0.0	0.0	0.0	0.0	0.0	0.0	0.0	0.0	0.0	65.268				
	423	106.87500000000001	36.0	73.0	-1.0	1.0	163.45	1	143.75	70.0	0.0	0.0	0.0	0.0	0.0	0.0	0.0	0.0	0.0	0.0	143.75				
	424	106.87500000000001	36.0	73.0	-1.0	1.0	148.19	1	143.75	70.0	0.0	0.0	0.0	0.0	0.0	0.0	0.0	0.0	0.0	0.0	143.75				
	424	0.0	0.0	33.33	-33.33	1.0	100.0	0	28.1	13.100000000000001	0.0	0.0	0.0	0.0	0.0	0.0	0.0	0.0	0.0	0.0	28.104				
	440	84.75	35.0	110.00000000000001	-40.0	1.0	147.7	1	137.5	32.0	0.0	0.0	0.0	0.0	0.0	0.0	0.0	0.0	0.0	0.0	137.5				
	441	0.0	0.0	37.67	-37.67	1.0	113.0	0	112.99999999999999	32.0	0.0	0.0	0.0	0.0	0.0	0.0	0.0	0.0	0.0	0.0	113.0				
	445	0.0	0.0	45.0	-45.0	1.0	135.0	0	135.0	35.0	0.0	0.0	0.0	0.0	0.0	0.0	0.0	0.0	0.0	0.0	135.0				
	455	0.0	0.0	8.33	-8.33	1.0	25.0	0	25.0	10.0	0.0	0.0	0.0	0.0	0.0	0.0	0.0	0.0	0.0	0.0	25.0				
	455	0.0	0.0	8.33	-8.33	1.0	25.0	0	25.0	10.0	0.0	0.0	0.0	0.0	0.0	0.0	0.0	0.0	0.0	0.0	25.0				
	455	20.625	5.5	179.0	-168.0	1.0	30.0	1	31.25	10.0	0.0	0.0	0.0	0.0	0.0	0.0	0.0	0.0	0.0	0.0	31.25				
	455	17.5	5.0	192.0	-182.0	1.0	25.0	1	25.0	10.0	0.0	0.0	0.0	0.0	0.0	0.0	0.0	0.0	0.0	0.0	25.0				
	457	0.0	0.0	33.33	-33.33	1.0	100.0	0	259.0	2.4	0.0	0.0	0.0	0.0	0.0	0.0	0.0	0.0	0.0	0.0	259.0				
	458	0.0	0.0	16.67	-16.67	1.0	50.0	0	50.0	10.0	0.0	0.0	0.0	0.0	0.0	0.0	0.0	0.0	0.0	0.0	50.0				
	475	95.0	36.0	73.0	-1.0	1.0	120.0	1	120.0	70.0	0.0	0.0	0.0	0.0	0.0	0.0	0.0	0.0	0.0	0.0	120.0				
	475	89.165	36.0	73.0	-1.0	1.0	120.0	1	120.0	58.32999999999999	0.0	0.0	0.0	0.0	0.0	0.0	0.0	0.0	0.0	0.0	120.0				
	476	177.555	35.875	73.0	-1.25	1.0	144.0	1	254.99	100.12	0.0	0.0	0.0	0.0	0.0	0.0	0.0	0.0	0.0	0.0	254.988				
	476	0.0	0.0	36.67	-36.67	1.0	110.0	0	110.00000000000001	79.0	0.0	0.0	0.0	0.0	0.0	0.0	0.0	0.0	0.0	0.0	110.0				
	480	0.0	0.0	33.33	-33.33	1.0	100.0	0	62.470000000000006	47.47	0.0	0.0	0.0	0.0	0.0	0.0	0.0	0.0	0.0	0.0	62.466				
	483	0.0	0.0	33.33	-33.33	1.0	100.0	0	259.0	8.27	0.0	0.0	0.0	0.0	0.0	0.0	0.0	0.0	0.0	0.0	259.0				
	514	41.15	0.0	87.18	-87.18	1.0	100.0	1	79.66	2.64	0.0	0.0	0.0	0.0	0.0	0.0	0.0	0.0	0.0	0.0	79.663				
	545	0.0	0.0	123.33000000000001	-123.33000000000001	1.0	370.0	0	370.0	240.0	0.0	0.0	0.0	0.0	0.0	0.0	0.0	0.0	0.0	0.0	370.0				
	545	0.0	0.0	123.33000000000001	-123.33000000000001	1.0	370.0	0	370.0	240.0	0.0	0.0	0.0	0.0	0.0	0.0	0.0	0.0	0.0	0.0	370.0				
	545	335.625	83.125	190.0	-23.75	1.0	449.45	1	431.25	240.0	0.0	0.0	0.0	0.0	0.0	0.0	0.0	0.0	0.0	0.0	431.25				
	546	351.25	83.125	190.0	-23.75	1.0	455.56	1	462.5	240.0	0.0	0.0	0.0	0.0	0.0	0.0	0.0	0.0	0.0	0.0	462.5				
	546	305.0	84.08	190.0	-21.84	1.0	397.31	1	370.0	240.0	0.0	0.0	0.0	0.0	0.0	0.0	0.0	0.0	0.0	0.0	370.0				
	547	722.385	85.5	190.0	-19.0	1.0	616.84	1	1090.99	353.78	0.0	0.0	0.0	0.0	0.0	0.0	0.0	0.0	0.0	0.0	1090.993				
	547	722.385	85.5	190.0	-19.0	1.0	616.84	1	1090.99	353.78	0.0	0.0	0.0	0.0	0.0	0.0	0.0	0.0	0.0	0.0	1090.993				
	547	722.385	85.5	190.0	-19.0	1.0	616.84	1	1090.99	353.78	0.0	0.0	0.0	0.0	0.0	0.0	0.0	0.0	0.0	0.0	1090.993				
	548	351.25	104.205	227.40999999999997	-19.0	1.0	451.84	1	462.5	240.0	0.0	0.0	0.0	0.0	0.0	0.0	0.0	0.0	0.0	0.0	462.5				
	548	332.5	85.5	190.0	-19.0	1.0	416.51	1	425.0	240.0	0.0	0.0	0.0	0.0	0.0	0.0	0.0	0.0	0.0	0.0	425.0				
	548	332.5	85.5	190.0	-19.0	1.0	416.51	1	425.0	240.0	0.0	0.0	0.0	0.0	0.0	0.0	0.0	0.0	0.0	0.0	425.0				
	557	120.42500000000001	0.0	133.54	-133.54	1.0	100.0	1	156.95	83.9	0.0	0.0	0.0	0.0	0.0	0.0	0.0	0.0	0.0	0.0	156.952				
	560	114.58500000000001	45.625	106.25	-15.0	1.0	166.81	1	137.5	91.67	0.0	0.0	0.0	0.0	0.0	0.0	0.0	0.0	0.0	0.0	137.5				
	560	0.0	0.0	40.0	-40.0	1.0	120.0	0	120.0	100.0	0.0	0.0	0.0	0.0	0.0	0.0	0.0	0.0	0.0	0.0	120.0				
	570	338.75	109.25	237.5	-19.0	1.0	477.9	1	437.5	240.0	0.0	0.0	0.0	0.0	0.0	0.0	0.0	0.0	0.0	0.0	437.5				
	574	15.0	0.0	179.0	-179.0	1.0	30.0	1	30.0	0.0	0.0	0.0	0.0	0.0	0.0	0.0	0.0	0.0	0.0	0.0	30.0				
	580	130.5	-2.0	178.0	-182.0	1.0	0.43	1	261.0	0.0	0.0	0.0	0.0	0.0	0.0	0.0	0.0	0.0	0.0	0.0	261.0				
];

%% branch data
%    f_bus    t_bus    r    x    b    rateA    rateB    rateC    ratio    angle    status    angmin    angmax
mpc.branch = [
	1	10	0.0018657373666622532	0.021617132949420324	-0.001582140923891669	461.00000000000006	461.00000000000006	461.00000000000006	0	0	1	-29.999999999999996	29.999999999999996								
	2	3	0.0018100852498601143	0.03373824338443395	-0.016205559505617924	400.0	400.0	400.0	1.07702	0.0	1	-29.999999999999996	29.999999999999996								
	2	17	0.0057621849087322805	0.04276380499701009	-0.001585969215009963	317.0	317.0	317.0	0	0	1	-29.999999999999996	29.999999999999996								
	3	14	0.0013098477751607353	0.015468261528409098	-0.0015680827995631043	838.0000000000001	838.0000000000001	838.0000000000001	0	0	1	-29.999999999999996	29.999999999999996								
	3	70	0.00016619182546730442	0.010236338872118424	-0.0016429440028322914	158.96	190.75	238.44	0	0	1	-29.999999999999996	29.999999999999996								
	4	5	1.0000112841211799e-5	6.000067704731507e-5	-0.055512629863309036	1593.0	1593.0	1593.0	0	0	1	-29.999999999999996	29.999999999999996								
	6	4	0.004927082438666689	0.05552503932359572	-0.0015800144489360858	250.0	250.0	250.0	0.9999	0.0	1	-29.999999999999996	29.999999999999996								
	4	65	0.0003294026903109217	0.0038729771340916624	-0.07298495823255065	831.0	831.0	831.0	0	0	1	-29.999999999999996	29.999999999999996								
	4	77	0.00016469226904735596	0.010190064851043725	-0.022733155816931718	126.64	151.97	189.97	0	0	1	-29.999999999999996	29.999999999999996								
	5	12	0.0024168363440721136	0.028146169283652895	-0.0015658600232554645	838.0000000000001	838.0000000000001	838.0000000000001	0	0	1	-29.999999999999996	29.999999999999996								
	5	16	0.001324479548961759	0.015465554131599302	-0.0015688193199315914	831.0	831.0	831.0	0	0	1	-29.999999999999996	29.999999999999996								
	5	68	0.00016201688933762027	0.01010698000165497	-0.0016124224461674128	149.53	179.43	224.29000000000002	0	0	1	-29.999999999999996	29.999999999999996								
	23	6	0.03429296355960126	0.01500665391154462	-0.023350694698938124	250.0	250.0	250.0	1.06772	0.0	1	-29.999999999999996	29.999999999999996								
	24	6	0.007990512310241595	0.07053676004164479	-0.10236884681853625	64.99	84.49	84.49	0.98438	0.0	1	-29.999999999999996	29.999999999999996								
	7	8	2.000056392838596e-5	0.00021000592124797098	-0.07367801883397679	876.0	876.0	876.0	0	0	1	-29.999999999999996	29.999999999999996								
	7	10	0.013527759372883091	0.09136952227725163	-0.00156967711750814	222.00000000000003	222.00000000000003	222.00000000000003	0	0	1	-29.999999999999996	29.999999999999996								
	25	7	0.004458600786587418	0.05283914423543095	-0.037864951836653185	160.0	160.0	160.0	1.07325	0.0	1	-29.999999999999996	29.999999999999996								
	8	17	0.013527777595096173	0.09136951590686045	-0.0015707784889532016	197.0	197.0	197.0	0	0	1	-29.999999999999996	29.999999999999996								
	26	8	0.013527750278551394	0.09136952503053526	-0.001624803832263898	160.0	160.0	160.0	1.08282	0.0	1	-29.999999999999996	29.999999999999996								
	9	10	2.0002015352449705e-5	0.0002100211612009647	-0.0015764833539150325	876.0	876.0	876.0	0	0	1	-29.999999999999996	29.999999999999996								
	9	76	0.00015330112655766344	0.009831435445637826	-0.001622082061196703	83.7	98.6	125.55000000000001	0	0	1	-29.999999999999996	29.999999999999996								
	11	10	0.007129164114797538	0.06667265252767299	-0.10980972706039467	243.52999999999997	316.58	316.58	0.9999	0.0	1	-29.999999999999996	29.999999999999996								
	10	66	0.00015238082078837203	0.009801887856843392	-0.001581266970287697	83.7	98.6	125.55000000000001	0	0	1	-29.999999999999996	29.999999999999996								
	33	11	0.013527750291516101	0.09136952502661023	-0.004791025901434175	260.0	312.0	390.0	0.94157	0.0	1	-29.999999999999996	29.999999999999996								
	11	75	0.0001274130445928923	0.008963138364878989	-0.038466178585902136	83.7	98.6	125.55000000000001	0	0	1	-29.999999999999996	29.999999999999996								
	12	69	0.0001651219493291986	0.010203345602297598	-0.04810665832604549	129.32	155.19	193.98	0	0	1	-29.999999999999996	29.999999999999996								
	13	14	1.0000035968173732e-5	6.000021580905371e-5	-0.05472623825427384	1593.0	1593.0	1593.0	0	0	1	-29.999999999999996	29.999999999999996								
	13	15	0.0015255245898777665	0.01798096863151593	-0.0015675369945046468	831.0	831.0	831.0	0	0	1	-29.999999999999996	29.999999999999996								
	52	13	0.002224150992241205	0.03738626375848703	-0.0015801812039802003	330.0	330.0	330.0	1.04877	0.0	1	-29.999999999999996	29.999999999999996								
	15	16	9.999993738853282e-6	5.9999962433123756e-5	-0.10226713736975816	1593.0	1593.0	1593.0	0	0	1	-29.999999999999996	29.999999999999996								
	63	15	0.00613083726366428	0.061877920306421696	-0.0015868918532563022	250.0	250.0	250.0	1.05449	0.0	1	-29.999999999999996	29.999999999999996								
	64	15	0.006321975136963351	0.06282546881500535	-0.0016972287953387407	250.0	250.0	250.0	1.05312	0.0	1	-29.999999999999996	29.999999999999996								
	15	65	0.0010030495571723564	0.01168553236972455	-0.0015683557098808514	831.0	831.0	831.0	0	0	1	-29.999999999999996	29.999999999999996								
	18	37	0.02071008264127071	0.06696276831345381	-0.0016311966899728374	101.0	101.0	101.0	0	0	1	-29.999999999999996	29.999999999999996								
	18	63	0.021378520187503126	0.06950269208970587	-0.0016432127483657895	120.0	120.0	120.0	0	0	1	-29.999999999999996	29.999999999999996								
	19	20	7.999125544947391e-5	0.0008299092755303214	-0.11608162931477478	438.0	438.0	438.0	0	0	1	-29.999999999999996	29.999999999999996								
	19	25	0.023251942520405383	0.08717010651062297	-0.0016271869444396572	86.0	86.0	86.0	0	0	1	-29.999999999999996	29.999999999999996								
	19	28	0.009819688384143538	0.0173417998059639	-0.042737814791439184	137.0	137.0	137.0	0	0	1	-29.999999999999996	29.999999999999996								
	19	63	0.019794582895900373	0.08896827747282693	-0.0015702766828514711	123.0	123.0	123.0	0	0	1	-29.999999999999996	29.999999999999996								
	20	42	0.0071531615176028225	0.023280484229225965	-0.00615267019164544	124.0	124.0	124.0	0	0	1	-29.999999999999996	29.999999999999996								
	20	48	0.0033208412262827887	0.010775177054917037	-0.0016962656945367302	137.0	137.0	137.0	0	0	1	-29.999999999999996	29.999999999999996								
	21	25	0.011159548899993071	0.015289404552854354	-0.029182842509525096	113.99999999999999	113.99999999999999	113.99999999999999	0	0	1	-29.999999999999996	29.999999999999996								
	21	40	0.01114355908083192	0.015267489418139308	-0.014096287602161951	113.99999999999999	113.99999999999999	113.99999999999999	0	0	1	-29.999999999999996	29.999999999999996								
	22	37	0.04004536485261905	0.07068546602956574	-0.024671874185803258	59.54999999999999	71.46	89.33	0	0	1	-29.999999999999996	29.999999999999996								
	22	51	0.041208036110140525	0.0686292517687425	-0.001624239961730553	67.92	81.51	101.88	0	0	1	-29.999999999999996	29.999999999999996								
	23	39	0.0012396868640658428	0.004128957123930069	-0.001704468702257801	128.0	128.0	128.0	0	0	1	-29.999999999999996	29.999999999999996								
	23	43	0.007932529429877818	0.02231716665056807	-0.1329754025748131	123.0	123.0	123.0	0	0	1	-29.999999999999996	29.999999999999996								
	23	45	0.0012399130110428355	0.0041297102931554235	-0.13972256628248436	170.12	204.15	255.18	0	0	1	-29.999999999999996	29.999999999999996								
	23	514	0.00015053356256070668	0.009742308553586104	-0.008094374424539072	229.85999999999999	275.83	344.79	0	0	1	-29.999999999999996	29.999999999999996								
	25	49	0.0012398022134262876	0.004129341707729556	-0.0015780661786556818	128.0	128.0	128.0	0	0	1	-29.999999999999996	29.999999999999996								
	25	61	0.019830798089117592	0.06477007742295018	-0.001592152267284076	123.0	123.0	123.0	0	0	1	-29.999999999999996	29.999999999999996								
	25	62	0.002179917538022013	0.00711973096630895	-0.0016433372270592808	123.0	123.0	123.0	0	0	1	-29.999999999999996	29.999999999999996								
	26	35	0.006454691129652704	0.02106215568002237	-0.0016303625800013206	123.0	123.0	123.0	0	0	1	-29.999999999999996	29.999999999999996								
	26	119	0.00016738547388523922	0.010273023890694172	-0.047779816061470116	170.58	204.69999999999996	255.87	0	0	1	-29.999999999999996	29.999999999999996								
	27	28	8.000692695131415e-5	0.0008300718671088726	-0.0015828525759278799	438.0	438.0	438.0	0	0	1	-29.999999999999996	29.999999999999996								
	27	32	0.0012400512727058328	0.004130170777118795	-0.0015854069946384765	128.0	128.0	128.0	0	0	1	-29.999999999999996	29.999999999999996								
	27	56	0.0009901996935368933	0.003470699935925986	-0.08552427630967516	137.0	137.0	137.0	0	0	1	-29.999999999999996	29.999999999999996								
	27	61	0.010755046744822297	0.034469801887150514	-0.0015843122790660355	137.0	137.0	137.0	0	0	1	-29.999999999999996	29.999999999999996								
	28	31	0.004969807619125375	0.01275517193285927	-0.0015954332790097114	95.0	95.0	95.0	0	0	1	-29.999999999999996	29.999999999999996								
	28	55	0.001239922715183298	0.004129742596622116	-0.036118397793697465	128.0	128.0	128.0	0	0	1	-29.999999999999996	29.999999999999996								
	29	30	0.0014201843834440663	0.004650603791893234	-0.0015949824864597221	123.0	123.0	123.0	0	0	1	-29.999999999999996	29.999999999999996								
	29	58	0.004080796004157304	0.013322598882331286	-0.0015802977598530885	123.0	123.0	123.0	0	0	1	-29.999999999999996	29.999999999999996								
	30	64	0.01713790201263788	0.05580627802405982	-0.0015888096412631787	137.0	137.0	137.0	0	0	1	-29.999999999999996	29.999999999999996								
	31	46	0.0037178103443229983	0.009334502425449465	-0.009536718996460107	120.0	120.0	120.0	0	0	1	-29.999999999999996	29.999999999999996								
	32	55	0.0012380363590818657	0.004123459808908961	-0.001584479640092994	128.0	128.0	128.0	0	0	1	-29.999999999999996	29.999999999999996								
	34	62	0.0013308247471599673	0.004342691280924563	-0.051978728106137524	123.0	123.0	123.0	0	0	1	-29.999999999999996	29.999999999999996								
	36	42	0.0028874289410779157	0.009251762076514842	-0.001689940521687928	137.0	137.0	137.0	0	0	1	-29.999999999999996	29.999999999999996								
	36	56	0.0020727142866131397	0.006949100071339134	-0.0016274171260520383	137.0	137.0	137.0	0	0	1	-29.999999999999996	29.999999999999996								
	37	38	0.004133020282446623	0.01373003369602678	-0.0015805772491755588	62.0	62.0	62.0	0	0	1	-29.999999999999996	29.999999999999996								
	38	60	0.0343739101950829	0.06097919807613379	-0.0016544291861442452	62.0	62.0	62.0	0	0	1	-29.999999999999996	29.999999999999996								
	39	40	8.000089043683983e-5	0.000830009238538313	-0.029159790904871613	438.0	438.0	438.0	0	0	1	-29.999999999999996	29.999999999999996								
	39	41	0.0012388334402521372	0.0041261146037335494	-0.00163325488912393	128.0	128.0	128.0	0	0	1	-29.999999999999996	29.999999999999996								
	40	41	0.0012399970704443286	0.004129990244693463	-0.050701967570582845	128.0	128.0	128.0	0	0	1	-29.999999999999996	29.999999999999996								
	44	60	0.018706691446261456	0.08946071678003054	-0.0049374560970452865	62.0	62.0	62.0	0	0	1	-29.999999999999996	29.999999999999996								
	44	64	0.0016495897523307187	0.004958766998021041	-0.0016925903487994482	137.0	137.0	137.0	0	0	1	-29.999999999999996	29.999999999999996								
	46	62	0.02368759401856201	0.07744576673888444	-0.001644227391364816	123.0	123.0	123.0	0	0	1	-29.999999999999996	29.999999999999996								
	47	48	0.006518202451193439	0.02087846111014856	-0.05663735276337676	137.0	137.0	137.0	0	0	1	-29.999999999999996	29.999999999999996								
	47	58	0.039300556234285175	0.07188670979133231	-0.0015782075599035873	90.0	90.0	90.0	0	0	1	-29.999999999999996	29.999999999999996								
	47	59	0.01135962876770644	0.03648729468012364	-0.054752706726374736	137.0	137.0	137.0	0	0	1	-29.999999999999996	29.999999999999996								
	50	52	0.03092904523816822	0.08165752877278261	-0.001637400629211038	54.76	71.18	71.18	0	0	1	-29.999999999999996	29.999999999999996								
	51	54	0.01653200189254023	0.033064008133202656	-0.0033275647767541426	62.580000000000005	75.1	93.87	0	0	1	-29.999999999999996	29.999999999999996								
	52	53	8.000209915833748e-5	0.000830021779418517	-0.010073321141928007	438.0	438.0	438.0	0	0	1	-29.999999999999996	29.999999999999996								
	52	57	0.02390829376187378	0.04711767835970858	-0.001617536941410562	58.82999999999999	76.48	76.48	0	0	1	-29.999999999999996	29.999999999999996								
	54	432	0.00015930876486247708	0.010022176070098775	-0.001831056499906015	193.33	231.99	289.99	0	0	1	-29.999999999999996	29.999999999999996								
	59	63	0.01714932477046985	0.056032385815141715	-0.0015868895466110578	140.0	140.0	140.0	0	0	1	-29.999999999999996	29.999999999999996								
	63	64	8.000402202240217e-5	0.0008300417287196956	-0.03699212000758271	438.0	438.0	438.0	0	0	1	-29.999999999999996	29.999999999999996								
	66	75	0.0018098861822763124	0.02096941764695138	-0.0015773376700341324	461.00000000000006	461.00000000000006	461.00000000000006	0	0	1	-29.999999999999996	29.999999999999996								
	67	68	0.0011271683333335684	0.02663808636241655	-0.001589757532953028	400.0	400.0	400.0	1.07702	0.0	1	-29.999999999999996	29.999999999999996								
	67	82	0.005548024502347068	0.041175131346342604	-0.0015760470755506856	317.0	317.0	317.0	0	0	1	-29.999999999999996	29.999999999999996								
	68	79	0.001309029731902396	0.0154585828218058	-0.0015680142925066825	838.0000000000001	838.0000000000001	838.0000000000001	0	0	1	-29.999999999999996	29.999999999999996								
	69	70	1.000004008507745e-5	6.0000240510505e-5	-0.01724357871916424	1593.0	1593.0	1593.0	0	0	1	-29.999999999999996	29.999999999999996								
	71	69	0.0034731940644194205	0.046672647948836764	-0.09315971843733588	250.0	250.0	250.0	0.9999	0.0	1	-29.999999999999996	29.999999999999996								
	69	130	0.000330321090069589	0.0038837753128256555	-0.0015731717080361858	831.0	831.0	831.0	0	0	1	-29.999999999999996	29.999999999999996								
	70	77	0.002309815891607179	0.02689984637883625	-0.0015659546044991747	838.0000000000001	838.0000000000001	838.0000000000001	0	0	1	-29.999999999999996	29.999999999999996								
	70	81	0.001338669209067241	0.01563124687009378	-0.001567496473488674	831.0	831.0	831.0	0	0	1	-29.999999999999996	29.999999999999996								
	88	71	0.03430463417607552	0.01501929197474084	-0.045513100112980515	250.0	250.0	250.0	1.06772	0.0	1	-29.999999999999996	29.999999999999996								
	89	71	0.007053816930427603	0.06632338600079549	-0.001626550527907808	64.99	84.49	84.49	0.98438	0.0	1	-29.999999999999996	29.999999999999996								
	72	73	1.9999105914913998e-5	0.00020999061210820824	-0.0016802251060225744	876.0	876.0	876.0	0	0	1	-29.999999999999996	29.999999999999996								
	72	75	0.013527760201482171	0.09136952202639546	-0.001571922946809365	222.00000000000003	222.00000000000003	222.00000000000003	0	0	1	-29.999999999999996	29.999999999999996								
	90	72	0.0013880648141139957	0.029554493468230032	-0.0015868846569101114	160.0	160.0	160.0	1.07325	0.0	1	-29.999999999999996	29.999999999999996								
	73	82	0.013527769374427262	0.09136951860079462	-0.001573584089210961	197.0	197.0	197.0	0	0	1	-29.999999999999996	29.999999999999996								
	91	73	0.013527750140389514	0.09136952441047498	-0.03417346178321853	160.0	160.0	160.0	1.08282	0.0	1	-29.999999999999996	29.999999999999996								
	74	75	1.9998096006360838e-5	0.0002099800080693181	-0.0015804645145566154	876.0	876.0	876.0	0	0	1	-29.999999999999996	29.999999999999996								
	74	193	0.00014655350913358932	0.009612684520368193	-0.033448350366218016	269.8	323.76	404.7	0	0	1	-29.999999999999996	29.999999999999996								
	76	75	0.009810334761233297	0.07804311527996693	-0.21117168551686133	243.52999999999997	316.58	316.58	0.9999	0.0	1	-29.999999999999996	29.999999999999996								
	98	76	0.0013895868123766182	0.0295706565356228	-0.0016981905497372185	260.0	312.0	390.0	0.94157	0.0	1	-29.999999999999996	29.999999999999996								
	78	79	9.999872033129455e-6	5.999923219878546e-5	-0.0015963824845667022	1593.0	1593.0	1593.0	0	0	1	-29.999999999999996	29.999999999999996								
	78	80	0.0014951340468793504	0.017622818476714965	-0.001566636479722732	831.0	831.0	831.0	0	0	1	-29.999999999999996	29.999999999999996								
	117	78	0.002930978933490236	0.042893541942225506	-0.028558356031517334	330.0	330.0	330.0	1.04877	0.0	1	-29.999999999999996	29.999999999999996								
	80	81	1.0000240552308767e-5	6.0001443313856934e-5	-0.06739484628585532	1593.0	1593.0	1593.0	0	0	1	-29.999999999999996	29.999999999999996								
	128	80	0.004262174446315832	0.05167020481726705	-0.0016037663545750182	250.0	250.0	250.0	1.05449	0.0	1	-29.999999999999996	29.999999999999996								
	129	80	0.005164845767959733	0.056838172547105076	-0.058675739794859426	250.0	250.0	250.0	1.05312	0.0	1	-29.999999999999996	29.999999999999996								
	80	130	0.0009961629409375645	0.011605304184901829	-0.0015682652769220852	831.0	831.0	831.0	0	0	1	-29.999999999999996	29.999999999999996								
	83	102	0.021293264161861048	0.06884858249306261	-0.0015829681720289776	101.0	101.0	101.0	0	0	1	-29.999999999999996	29.999999999999996								
	83	128	0.02144604234571261	0.06972228936262073	-0.020081274508560086	120.0	120.0	120.0	0	0	1	-29.999999999999996	29.999999999999996								
	84	85	7.997320870213553e-5	0.0008297220405133837	-0.0015741387517296407	438.0	438.0	438.0	0	0	1	-29.999999999999996	29.999999999999996								
	84	90	0.023632805190653514	0.08694896211976677	-0.001961985367411503	86.0	86.0	86.0	0	0	1	-29.999999999999996	29.999999999999996								
	84	93	0.009827378832431184	0.017355391040447216	-0.12119878991864459	137.0	137.0	137.0	0	0	1	-29.999999999999996	29.999999999999996								
	84	128	0.01945597187886561	0.08912515318509244	-0.0015877364557627203	123.0	123.0	123.0	0	0	1	-29.999999999999996	29.999999999999996								
	85	107	0.007105292398183394	0.02312469777334589	-0.0016437817710962105	124.0	124.0	124.0	0	0	1	-29.999999999999996	29.999999999999996								
	85	113	0.003306757792527252	0.010729480071629136	-0.12847875189194458	137.0	137.0	137.0	0	0	1	-29.999999999999996	29.999999999999996								
	86	90	0.011173177699470125	0.015308070231654066	-0.07352274623239015	113.99999999999999	113.99999999999999	113.99999999999999	0	0	1	-29.999999999999996	29.999999999999996								
	86	105	0.011156447188467951	0.015285143505659952	-0.0015756654469611274	113.99999999999999	113.99999999999999	113.99999999999999	0	0	1	-29.999999999999996	29.999999999999996								
	87	102	0.03997795668258064	0.07079761674007533	-0.0016636926975615004	88.34	106.01	132.51	0	0	1	-29.999999999999996	29.999999999999996								
	87	116	0.04124569546740412	0.06855838235748274	-0.027717717675582367	82.01	98.42	123.02	0	0	1	-29.999999999999996	29.999999999999996								
	88	104	0.001241137368824733	0.0041337882322501195	-0.08059729082057485	128.0	128.0	128.0	0	0	1	-29.999999999999996	29.999999999999996								
	88	108	0.007923027694867222	0.022290392188701283	-0.12523808714199133	176.21	211.46000000000004	264.32	0	0	1	-29.999999999999996	29.999999999999996								
	88	110	0.0012386930385932405	0.004125647100435032	-0.0015853441354671993	137.0	137.0	137.0	0	0	1	-29.999999999999996	29.999999999999996								
	90	114	0.001240022401750679	0.004130075110162198	-0.013758213756508009	128.0	128.0	128.0	0	0	1	-29.999999999999996	29.999999999999996								
	90	126	0.019659256575849944	0.06421149516740937	-0.00158281009945275	123.0	123.0	123.0	0	0	1	-29.999999999999996	29.999999999999996								
	90	127	0.0021805898703873687	0.007121927020105703	-0.04912490200115481	123.0	123.0	123.0	0	0	1	-29.999999999999996	29.999999999999996								
	91	100	0.006415297830520136	0.02093361246044659	-0.0015694915321759248	123.0	123.0	123.0	0	0	1	-29.999999999999996	29.999999999999996								
	91	480	0.0001519292376271542	0.009787356548407298	-0.13228153153763075	83.7	98.6	125.55000000000001	0	0	1	-29.999999999999996	29.999999999999996								
	92	93	8.001426578480409e-5	0.0008301480075855645	-0.021140831181981876	438.0	438.0	438.0	0	0	1	-29.999999999999996	29.999999999999996								
	92	97	0.0012413724394991297	0.0041345711149310535	-0.038464133734470864	128.0	128.0	128.0	0	0	1	-29.999999999999996	29.999999999999996								
	92	121	0.0009900655692243524	0.0034702298251924764	-0.001575370887717249	137.0	137.0	137.0	0	0	1	-29.999999999999996	29.999999999999996								
	92	126	0.010824719442667203	0.03469307824303236	-0.5142623553914745	137.0	137.0	137.0	0	0	1	-29.999999999999996	29.999999999999996								
	93	96	0.004952996726019086	0.012712026699998536	-0.05695801354624724	95.0	95.0	95.0	0	0	1	-29.999999999999996	29.999999999999996								
	93	120	0.0012402722841054824	0.004130906887200457	-0.0016600567163233021	128.0	128.0	128.0	0	0	1	-29.999999999999996	29.999999999999996								
	94	95	0.0014201455961517762	0.004650476777407017	-0.0019387048044367363	123.0	123.0	123.0	0	0	1	-29.999999999999996	29.999999999999996								
	94	123	0.004084211972089692	0.013333751031220658	-0.07584537914226559	123.0	123.0	123.0	0	0	1	-29.999999999999996	29.999999999999996								
	95	129	0.017000428068077642	0.05535860013398541	-0.0016050936195157758	137.0	137.0	137.0	0	0	1	-29.999999999999996	29.999999999999996								
	96	111	0.0037247317049325795	0.009351880432938983	-0.0017651985538248574	120.0	120.0	120.0	0	0	1	-29.999999999999996	29.999999999999996								
	97	120	0.00124001818092036	0.0041300605545004036	-0.0016036161560321037	128.0	128.0	128.0	0	0	1	-29.999999999999996	29.999999999999996								
	99	127	0.0013294046707252615	0.004338057347353195	-0.05523982182085186	123.0	123.0	123.0	0	0	1	-29.999999999999996	29.999999999999996								
	101	107	0.002887144524126402	0.009250850907974315	-0.0015697222765628624	137.0	137.0	137.0	0	0	1	-29.999999999999996	29.999999999999996								
	101	121	0.0020709322408340816	0.006943125513572726	-0.0016129077818082273	137.0	137.0	137.0	0	0	1	-29.999999999999996	29.999999999999996								
	102	103	0.004128716207887371	0.013715736082404293	-0.20465047092419222	62.0	62.0	62.0	0	0	1	-29.999999999999996	29.999999999999996								
	103	125	0.03448831168952941	0.06118214512067187	-0.0015748039036854818	62.0	62.0	62.0	0	0	1	-29.999999999999996	29.999999999999996								
	104	105	8.009373581956857e-5	0.0008309725093133242	-0.0017829255219585331	438.0	438.0	438.0	0	0	1	-29.999999999999996	29.999999999999996								
	104	106	0.0012402116004733713	0.004130704766311299	-0.0015974603344162354	128.0	128.0	128.0	0	0	1	-29.999999999999996	29.999999999999996								
	105	106	0.0012400144266108087	0.004130048051317981	-0.0015687622834567652	128.0	128.0	128.0	0	0	1	-29.999999999999996	29.999999999999996								
	108	222	0.00015206531591482265	0.009791737627843649	-0.0016111060375039057	131.42	157.71	197.13	0	0	1	-29.999999999999996	29.999999999999996								
	109	125	0.018436252485684354	0.08957797293688473	-0.0015685674640592074	62.0	62.0	62.0	0	0	1	-29.999999999999996	29.999999999999996								
	109	129	0.0016506450028529072	0.0049619395212448575	-0.08379863643096265	137.0	137.0	137.0	0	0	1	-29.999999999999996	29.999999999999996								
	111	127	0.02369622161111052	0.07747497987069055	-0.024515186935379147	123.0	123.0	123.0	0	0	1	-29.999999999999996	29.999999999999996								
	112	113	0.006444828795133466	0.02064343792930407	-0.05783290411790593	137.0	137.0	137.0	0	0	1	-29.999999999999996	29.999999999999996								
	112	123	0.039465080998154364	0.07162826633074622	-0.15431354410055725	90.0	90.0	90.0	0	0	1	-29.999999999999996	29.999999999999996								
	112	124	0.011319412093415972	0.03635812549276758	-0.01990728328819811	137.0	137.0	137.0	0	0	1	-29.999999999999996	29.999999999999996								
	115	117	0.031224013541456923	0.08139442165337646	-0.0016823736378125034	54.76	71.18	71.18	0	0	1	-29.999999999999996	29.999999999999996								
	116	119	0.01659216544209527	0.033184338180956834	-0.0015842106320452939	76.66	91.99	114.99	0	0	1	-29.999999999999996	29.999999999999996								
	117	118	7.999818773872022e-5	0.0008299811984444662	-0.0016071815687665845	438.0	438.0	438.0	0	0	1	-29.999999999999996	29.999999999999996								
	117	122	0.02371244676038158	0.046731709727058375	-0.024093971297207094	58.82999999999999	76.48	76.48	0	0	1	-29.999999999999996	29.999999999999996								
	124	128	0.01687218812391549	0.055127283583800674	-0.13191259591438179	140.0	140.0	140.0	0	0	1	-29.999999999999996	29.999999999999996								
	128	129	8.00271119169486e-5	0.0008302812868743073	-0.0015691699762638543	438.0	438.0	438.0	0	0	1	-29.999999999999996	29.999999999999996								
	131	132	2.000169789554286e-5	0.0002100178279044497	-0.0016511211947135016	876.0	876.0	876.0	0	0	1	-29.999999999999996	29.999999999999996								
	131	133	0.0011507374677920507	0.026914644225362192	-0.001590786993936667	500.0	500.0	500.0	1.08613	0.0	1	-29.999999999999996	29.999999999999996								
	146	131	0.007605993681006639	0.068839907665929	-0.11530043036727051	160.0	160.0	160.0	1.06463	0.0	1	-29.999999999999996	29.999999999999996								
	148	132	0.007703486907177351	0.06927427548119963	-0.0015755628433069394	160.0	160.0	160.0	1.05908	0.0	1	-29.999999999999996	29.999999999999996								
	132	190	0.00015092882587410922	0.009755087543803194	-0.01186905350321768	229.39	275.26	344.08	0	0	1	-29.999999999999996	29.999999999999996								
	134	133	0.0015016571816383426	0.030737238055819738	-0.013122540816422357	330.0	330.0	330.0	0.9999	0.0	1	-29.999999999999996	29.999999999999996								
	133	188	0.00018450718229056642	0.010785497009047107	-0.05595058356568165	379.94	455.93000000000006	569.91	0	0	1	-29.999999999999996	29.999999999999996								
	147	134	0.04230259695514375	0.026935477024493813	-0.04486473113869591	330.0	330.0	330.0	1.06892	0.0	1	-29.999999999999996	29.999999999999996								
	149	134	0.005200805237384669	0.05703405516867513	-0.04345425839468828	260.0	312.0	390.0	0.96037	0.0	1	-29.999999999999996	29.999999999999996								
	167	135	0.01352774853625292	0.09136952555801105	-0.03931428683341166	688.8	826.56	1033.2	1.05737	0.0	1	-29.999999999999996	29.999999999999996								
	135	544	0.00014602579952855416	0.009595366252235709	-0.046146118770933914	689.73	827.68	1034.6	0	0	1	-29.999999999999996	29.999999999999996								
	136	137	0.021947678643069426	0.07340071730314714	-0.0545233784623495	90.0	90.0	90.0	0	0	1	-29.999999999999996	29.999999999999996								
	136	139	0.03450521391022224	0.07813441177212964	-0.02543090013034924	49.0	49.0	49.0	0	0	1	-29.999999999999996	29.999999999999996								
	137	138	8.002250123457641e-5	0.0008302334505969039	-0.03630950279371702	438.0	438.0	438.0	0	0	1	-29.999999999999996	29.999999999999996								
	138	565	0.00015063227912214222	0.009745501663093202	-0.02448328350360882	83.7	98.6	125.55000000000001	0	0	1	-29.999999999999996	29.999999999999996								
	139	140	0.013229443405379132	0.01778269394653137	-0.0016124469994665356	62.0	62.0	62.0	0	0	1	-29.999999999999996	29.999999999999996								
	139	166	0.019105249534384902	0.0892841931928277	-0.0015906270295110844	113.99999999999999	113.99999999999999	113.99999999999999	0	0	1	-29.999999999999996	29.999999999999996								
	139	173	0.023252094531015545	0.07873487570625848	-0.0017149059300445356	69.0	69.0	69.0	0	0	1	-29.999999999999996	29.999999999999996								
	140	151	0.022366252724400647	0.07249344688854437	-0.001588518835539928	75.0	75.0	75.0	0	0	1	-29.999999999999996	29.999999999999996								
	141	148	0.02471209817859453	0.0862956883296561	-0.013608361705743803	123.0	123.0	123.0	0	0	1	-29.999999999999996	29.999999999999996								
	141	457	0.00015788378204403648	0.009977263533622766	-0.11189630151598046	83.7	98.6	125.55000000000001	0	0	1	-29.999999999999996	29.999999999999996								
	142	172	0.023989502716952014	0.08673745748675937	-0.008153345818720377	137.0	137.0	137.0	0	0	1	-29.999999999999996	29.999999999999996								
	142	577	0.00015416446949792668	0.009859073590461336	-0.0017059356321092707	83.7	98.6	125.55000000000001	0	0	1	-29.999999999999996	29.999999999999996								
	143	167	0.010405208198579267	0.05090500801902431	-0.0018747519000194754	133.0	133.0	133.0	0	0	1	-29.999999999999996	29.999999999999996								
	143	169	0.02428126306337258	0.04315245692800942	-0.0015770592799243344	69.0	69.0	69.0	0	0	1	-29.999999999999996	29.999999999999996								
	144	145	0.0014931700843928961	0.004970552766202381	-0.0015791170863248603	137.0	137.0	137.0	0	0	1	-29.999999999999996	29.999999999999996								
	144	177	0.006836176024534634	0.021442545797663193	-0.0015879595699746795	137.0	137.0	137.0	0	0	1	-29.999999999999996	29.999999999999996								
	145	175	0.002729284887563074	0.00825783633871148	-0.0222170801937299	120.0	120.0	120.0	0	0	1	-29.999999999999996	29.999999999999996								
	146	147	8.00282084445316e-5	0.0008302926626024253	-0.17937794933776707	438.0	438.0	438.0	0	0	1	-29.999999999999996	29.999999999999996								
	146	151	0.023880844377499537	0.08680234123007823	-0.0016273500736967593	123.0	123.0	123.0	0	0	1	-29.999999999999996	29.999999999999996								
	146	154	0.019214794739771505	0.08923489271860377	-0.0015734896972750445	151.36	196.77	196.77	0	0	1	-29.999999999999996	29.999999999999996								
	146	174	0.007357882530675825	0.0237931681672162	-0.0015803805667464917	113.99999999999999	113.99999999999999	113.99999999999999	0	0	1	-29.999999999999996	29.999999999999996								
	147	148	7.998920631611756e-5	0.0008298880155352935	-0.0015939138049742725	438.0	438.0	438.0	0	0	1	-29.999999999999996	29.999999999999996								
	147	155	0.018184389204892754	0.08968535791673968	-0.001969969089982396	114.35	148.65	148.65	0	0	1	-29.999999999999996	29.999999999999996								
	147	157	0.02116030225394314	0.06834406235921207	-0.0015765334214701819	123.0	123.0	123.0	0	0	1	-29.999999999999996	29.999999999999996								
...
];

%%-----  OPF Data  -----%%
%% cost data
%    1    startup    shutdown    n    x1    y1    ...    xn    yn
%    2    startup    shutdown    n    c(n-1)    ...    c0
mpc.gencost = [
	2	0.0	0.0	2	23.535653000000003	0.0
	2	0.0	0.0	2	27.46502	0.0
	2	0.0	0.0	2	34.2278	0.0
	2	0.0	0.0	2	36.624241	0.0
	2	0.0	0.0	2	48.19011600000001	0.0
	2	0.0	0.0	2	37.933947	0.0
	2	0.0	0.0	2	12.156093	0.0
	2	0.0	0.0	2	36.057882	0.0
	2	0.0	0.0	2	46.03746499999999	0.0
	2	0.0	0.0	2	18.648445	0.0
	2	0.0	0.0	2	47.503236	0.0
	2	0.0	0.0	2	103.913889	0.0
	2	0.0	0.0	2	41.991113	0.0
	2	0.0	0.0	2	33.415433	0.0
	2	0.0	0.0	2	26.331314	0.0
	2	0.0	0.0	2	41.212053	0.0
	2	0.0	0.0	2	37.964524	0.0
	2	0.0	0.0	2	28.621957	0.0
	2	0.0	0.0	2	24.735716000000004	0.0
	2	0.0	0.0	2	30.362388000000003	0.0
	2	0.0	0.0	2	38.096425	0.0
	2	0.0	0.0	2	39.564385	0.0
	2	0.0	0.0	2	48.503408	0.0
	2	0.0	0.0	2	36.698208	0.0
...